data/case85/reduced/59pct/case85_reduced.m
%% case85_reduced -- Opti-KRON reduction of case85
%
%   85 buses reduced to 35 super-nodes (58.8% reduction), 34 branches.
%   Loads are scenario 1 of 1.
%
%   Equivalent branches come from the Kron-reduced admittance matrix, so a
%   negative resistance is possible and is not an error -- an equivalent
%   branch stands in for eliminated network, not for a conductor.
%
%   Bus map -- each super-node and the original buses it represents:
%     1 <- 1
%     2 <- 2 16
%     3 <- 3 17
%     4 <- 4
%     5 <- 5
%     6 <- 6
%     7 <- 7 24
%     8 <- 8
%     9 <- 9
%     10 <- 10 78
%     11 <- 11
%     12 <- 12 13 14 15 85
%     18 <- 18
%     19 <- 19 20 21 22 23
%     25 <- 25
%     26 <- 26 37
%     27 <- 27 38
%     28 <- 28
%     29 <- 29 39
%     30 <- 30
%     31 <- 31
%     32 <- 32 33 40 41 42 43
%     34 <- 34
%     35 <- 35 36
%     44 <- 44 45 46 47
%     48 <- 48 49 50 51 56
%     52 <- 52 53 54 55
%     57 <- 57
%     58 <- 58 59
%     60 <- 60 61 62 63
%     64 <- 64 65 66 77
%     67 <- 67 72 79
%     68 <- 68 73 74 75
%     69 <- 69 70 71 76
%     80 <- 80 81 82 83 84

function mpc = case85_reduced
mpc.version = '2';
mpc.baseMVA = 1;

%% bus data
%	bus_i	type	Pd	Qd	Gs	Bs	area	Vm	Va	baseKV	zone	Vmax	Vmin
mpc.bus = [
	1	3	-0	-0	0	0	1	1	0	1	1	1.1	0.9;
	2	1	0.035279999999999999	0.035992800000000005	5.1071921383749685e-14	-5.4081054547886741e-17	1	1	0	1	1	1.1	0.9;
	3	1	0.112	0.1142629	2.8644927252189024e-31	-5.6843418860808015e-14	1	1	0	1	1	1.1	0.9;
	4	1	0.056000000000000001	0.057131399999999999	-1.1368683772161603e-13	0	1	1	0	1	1	1.1	0.9;
	5	1	-0	-0	-9.9475983006414026e-14	7.1054273576010019e-15	1	1	0	1	1	1.1	0.9;
	6	1	0.035279999999999999	0.035992800000000005	0	-2.8421709430404007e-14	1	1	0	1	1	1.1	0.9;
	7	1	0.035279999999999999	0.035992800000000005	-1.4210854715202004e-14	7.1054273576010019e-15	1	1	0	1	1	1.1	0.9;
	8	1	0.035279999999999999	0.035992800000000005	-8.5265128291212022e-14	0	1	1	0	1	1	1.1	0.9;
	9	1	-0	-0	5.6843418860808015e-14	-8.5265128291212022e-14	1	1	0	1	1	1.1	0.9;
	10	1	0.056000000000000001	0.057131399999999999	2.8421709430404007e-14	-1.4210854715202004e-14	1	1	0	1	1	1.1	0.9;
	11	1	0.056000000000000001	0.057131399999999999	0	0	1	1	0	1	1	1.1	0.9;
	12	1	0.10583999999999999	0.10797840000000002	2.5579538487363607e-13	-2.2026824808563106e-13	1	1	0	1	1	1.1	0.9;
	18	1	0.056000000000000001	0.057131399999999999	0	0	1	1	0	1	1	1.1	0.9;
	19	1	0.21784000000000001	0.22224120000000003	2.2737367544323206e-13	-8.5265128291212022e-14	1	1	0	1	1	1.1	0.9;
	25	1	0.035279999999999999	0.035992800000000005	-5.6843418860808015e-14	-1.4210854715202004e-14	1	1	0	1	1	1.1	0.9;
	26	1	0.112	0.1142628	1.9895196601282805e-13	-4.2632564145606011e-14	1	1	0	1	1	1.1	0.9;
	27	1	0.056000000000000001	0.057131399999999999	5.6843418860808015e-14	2.8421709430404007e-14	1	1	0	1	1	1.1	0.9;
	28	1	0.056000000000000001	0.057131399999999999	2.8421709430404007e-14	0	1	1	0	1	1	1.1	0.9;
	29	1	0.056000000000000001	0.057131399999999999	-5.6843418860808015e-14	5.6843418860808015e-14	1	1	0	1	1	1.1	0.9;
	30	1	0.035279999999999999	0.035992800000000005	5.6843418860808015e-14	0	1	1	0	1	1	1.1	0.9;
	31	1	0.035279999999999999	0.035992800000000005	1.1368683772161603e-13	2.8421709430404007e-14	1	1	0	1	1	1.1	0.9;
	32	1	0.11984	0.12226130000000002	-1.8474111129762605e-13	1.4210854715202004e-14	1	1	0	1	1	1.1	0.9;
	34	1	-0	-0	-2.8421709430404007e-14	7.1054273576010019e-15	1	1	0	1	1	1.1	0.9;
	35	1	0.035279999999999999	0.035992800000000005	2.2737367544323206e-13	-8.5265128291212022e-14	1	1	0	1	1	1.1	0.9;
	44	1	0.11983999999999999	0.12226130000000002	-5.6843418860808015e-14	2.1316282072803006e-14	1	1	0	1	1	1.1	0.9;
	48	1	0.10628	0.10842729999999999	-2.5579538487363607e-13	-1.7763568394002505e-14	1	1	0	1	1	1.1	0.9;
	52	1	0.14727999999999999	0.15025559999999999	1.4210854715202004e-13	-2.1316282072803006e-14	1	1	0	1	1	1.1	0.9;
	57	1	0.056000000000000001	0.057131399999999999	0	7.1054273576010019e-15	1	1	0	1	1	1.1	0.9;
	58	1	0.056000000000000001	0.057131399999999999	1.9895196601282805e-13	-1.4210854715202004e-13	1	1	0	1	1	1.1	0.9;
	60	1	0.126	0.12854569999999998	1.5631940186722204e-13	-2.8421709430404007e-14	1	1	0	1	1	1.1	0.9;
	64	1	0.070000000000000007	0.0714143	-4.8316906031686813e-13	2.2737367544323206e-13	1	1	0	1	1	1.1	0.9;
	67	1	0.09128	0.093124200000000004	2.0738267692410819e-13	-5.0549448034065697e-14	1	1	0	1	1	1.1	0.9;
	68	1	0.09128	0.093124200000000004	3.1263880373444408e-13	-2.7000623958883807e-13	1	1	0	1	1	1.1	0.9;
	69	1	0.14727999999999999	0.15025559999999999	-4.2632564145606011e-14	-8.5265128291212022e-14	1	1	0	1	1	1.1	0.9;
	80	1	0.16128000000000001	0.16453849999999998	-4.8316906031686813e-13	2.0605739337042905e-13	1	1	0	1	1	1.1	0.9;
];

%% generator data
%	bus	Pg	Qg	Qmax	Qmin	Vg	mBase	status	Pmax	Pmin
mpc.gen = [
	1	0	0	9999	-9999	1	1	1	9999	-9999;
];

%% branch data
%	fbus	tbus	r	x	b	rateA	rateB	rateC	ratio	angle	status	angmin	angmax
mpc.branch = [
	1	2	0.00089256198347107448	0.00061983471074380169	0	0	0	0	0	0	1	-360	360;
	2	3	0.0013471074380165288	0.0009256198347107438	0	0	0	0	0	0	1	-360	360;
	3	4	0.0017933884297520661	0.0012314049586776858	0	0	0	0	0	0	1	-360	360;
	4	5	0.00089256198347107448	0.00061157024793388433	0	0	0	0	0	0	1	-360	360;
	5	6	0.0035950413223140489	0.0024628099173553712	0	0	0	0	0	0	1	-360	360;
	5	18	0.0067768595041322313	0.0028099173553719011	0	0	0	0	0	0	1	-360	360;
	6	7	0.0022479338842975208	0.001537190082644628	0	0	0	0	0	0	1	-360	360;
	7	8	0.0098925619834710748	0.0067768595041322313	0	0	0	0	0	0	1	-360	360;
	8	9	0.00089256198347107448	0.00061157024793388433	0	0	0	0	0	0	1	-360	360;
	8	25	0.0037603305785123965	0.0015619834710743801	0	0	0	0	0	0	1	-360	360;
	9	10	0.0049421487603305784	0.0033884297520661152	0	0	0	0	0	0	1	-360	360;
	9	57	0.0022561983471074379	0.00093388429752066095	0	0	0	0	0	0	1	-360	360;
	10	11	0.0044958677685950407	0.0030826446280991736	0	0	0	0	0	0	1	-360	360;
	11	12	0.0044958677685950407	0.0030826446280991736	0	0	0	0	0	0	1	-360	360;
	12	80	0.0060165289256198335	0.0024958677685950406	0	0	0	0	0	0	1	-360	360;
	18	19	0.0052644628099173555	0.0021818181818181819	0	0	0	0	0	0	1	-360	360;
	25	26	0.0030082644628099168	0.0012479338842975203	0	0	0	0	0	0	1	-360	360;
	26	27	0.0045123966942148758	0.0018677685950413219	0	0	0	0	0	0	1	-360	360;
	27	28	0.0022561983471074379	0.00093388429752066095	0	0	0	0	0	0	1	-360	360;
	28	29	0.0045123966942148758	0.0018677685950413219	0	0	0	0	0	0	1	-360	360;
	29	30	0.0045123966942148758	0.0018677685950413219	0	0	0	0	0	0	1	-360	360;
	30	31	0.0022561983471074379	0.00093388429752066095	0	0	0	0	0	0	1	-360	360;
	31	32	0.0015041322314049586	0.00061983471074380158	0	0	0	0	0	0	1	-360	360;
	32	34	0.0082727272727272684	0.0034297520661157009	0	0	0	0	0	0	1	-360	360;
	34	35	0.0052644628099173555	0.0021818181818181819	0	0	0	0	0	0	1	-360	360;
	34	44	0.0082809917355371899	0.0034380165289256198	0	0	0	0	0	0	1	-360	360;
	35	48	0.0052644628099173555	0.0021818181818181819	0	0	0	0	0	0	1	-360	360;
	48	52	0.011289256198347109	0.0046859504132231392	0	0	0	0	0	0	1	-360	360;
	57	58	0.0067685950413223124	0.0028099173553719006	0	0	0	0	0	0	1	-360	360;
	58	60	0.0045123966942148758	0.0018677685950413219	0	0	0	0	0	0	1	-360	360;
	60	64	0.0075206611570247921	0.0031157024793388422	0	0	0	0	0	0	1	-360	360;
	64	67	0.0037603305785123965	0.0015619834710743801	0	0	0	0	0	0	1	-360	360;
	67	68	0.0075206611570247991	0.003123966942148758	0	0	0	0	0	0	1	-360	360;
	68	69	0.0090247933884297499	0.0037438016528925596	0	0	0	0	0	0	1	-360	360;
];
